
##########################################################################
#               Crystallographic Information Format file
#               Produced by PyCifRW module
#
#  This is a CIF file.  CIF has been adopted by the International
#  Union of Crystallography as the standard for data archiving and
#  transmission.
#
#  For information on this file format, follow the CIF links at
#  http://www.iucr.org
##########################################################################

data_image0

_cell_length_a                          39.97
_cell_length_b                          40
_cell_length_c                          16.58
_cell_angle_alpha                       90
_cell_angle_beta                        90
_cell_angle_gamma                       120
_symmetry_space_group_name_H-M          'P 1'
_symmetry_int_tables_number             1
loop_
  _symmetry_equiv_pos_as_xyz
         'x, y, z' 
loop_
  _atom_site_label
  _atom_site_occupancy
  _atom_site_fract_x
  _atom_site_fract_y
  _atom_site_fract_z
  _atom_site_thermal_displace_type
  _atom_site_B_iso_or_equiv
  _atom_site_type_symbol
  _atom_site_charge
         C1        1.0000    0.35819   0.52034   0.16994   Biso      1.000     C          -0.0967   
         C2        1.0000    0.49309   0.12157   0.82085   Biso      1.000     C          -0.0179   
         C3        1.0000    0.52075   0.16103   0.83353   Biso      1.000     C          -0.0863   
         C4        1.0000    0.52068   0.19088   0.78749   Biso      1.000     C          -0.0981   
         C5        1.0000    0.49314   0.18290   0.72625   Biso      1.000     C          0.0788    
         C6        1.0000    0.46494   0.14370   0.71471   Biso      1.000     C          -0.0736   
         C7        1.0000    0.46476   0.35094   0.75996   Biso      1.000     C          -0.089    
         C8        1.0000    0.49297   0.37143   0.81994   Biso      1.000     C          -0.0193   
         C9        1.0000    0.52075   0.35978   0.83274   Biso      1.000     C          -0.0891   
         C10       1.0000    0.52066   0.32975   0.78718   Biso      1.000     C          -0.1323   
         C11       1.0000    0.46457   0.32071   0.71492   Biso      1.000     C          -0.0905   
         C12       1.0000    0.46522   0.35080   0.24258   Biso      1.000     C          -0.0736   
         C13       1.0000    0.49365   0.37117   0.18314   Biso      1.000     C          -0.0299   
         C14       1.0000    0.52204   0.36030   0.17235   Biso      1.000     C          -0.0961   
         C15       1.0000    0.52216   0.33071   0.21917   Biso      1.000     C          -0.0933   
         C16       1.0000    0.49411   0.31080   0.27935   Biso      1.000     C          0.0788    
         C17       1.0000    0.46531   0.32112   0.28921   Biso      1.000     C          -0.0889   
         C18       1.0000    0.49353   0.21546   0.67641   Biso      1.000     C          0.0243    
         C19       1.0000    0.49384   0.21603   0.58975   Biso      1.000     C          0.0427    
         C20       1.0000    0.49642   0.18757   0.54469   Biso      1.000     C          -0.1055   
         C21       1.0000    0.49374   0.24678   0.71737   Biso      1.000     C          -0.1205   
         C22       1.0000    0.49339   0.24677   0.54654   Biso      1.000     C          -0.0084   
         C23       1.0000    0.49439   0.27871   0.32934   Biso      1.000     C          0.0243    
         C24       1.0000    0.49424   0.27825   0.41596   Biso      1.000     C          0.0428    
         C25       1.0000    0.49654   0.30917   0.46094   Biso      1.000     C          -0.0765   
         C26       1.0000    0.49486   0.24779   0.28838   Biso      1.000     C          -0.1131   
         C27       1.0000    0.49361   0.24699   0.45919   Biso      1.000     C          -0.0083   
         C28       1.0000    0.49441   0.21636   0.32912   Biso      1.000     C          0.0243    
         C29       1.0000    0.49427   0.21648   0.41569   Biso      1.000     C          0.0397    
         C30       1.0000    0.49658   0.18776   0.46033   Biso      1.000     C          -0.1074   
         C31       1.0000    0.46507   0.11374   0.76030   Biso      1.000     C          -0.0868   
         C32       1.0000    0.49347   0.27791   0.67660   Biso      1.000     C          0.0243    
         C33       1.0000    0.46518   0.14503   0.28866   Biso      1.000     C          -0.0981   
         C34       1.0000    0.52240   0.19219   0.21948   Biso      1.000     C          -0.1323   
         C35       1.0000    0.83819   0.47749   0.82669   Biso      1.000     C          -0.0981   
         C36       1.0000    0.80836   0.47757   0.78079   Biso      1.000     C          -0.0952   
         C37       1.0000    0.81639   0.50595   0.72161   Biso      1.000     C          0.0795    
         C38       1.0000    0.85543   0.53490   0.71176   Biso      1.000     C          -0.141    
         C39       1.0000    0.88564   0.53540   0.23976   Biso      1.000     C          -0.0933   
         C40       1.0000    0.87774   0.50666   0.18130   Biso      1.000     C          -0.0275   
         C41       1.0000    0.83855   0.47815   0.17030   Biso      1.000     C          -0.0981   
         C42       1.0000    0.80870   0.47817   0.21621   Biso      1.000     C          -0.1123   
         C43       1.0000    0.81670   0.50650   0.27547   Biso      1.000     C          0.0795    
         C44       1.0000    0.85573   0.53546   0.28543   Biso      1.000     C          -0.141    
         C45       1.0000    0.72172   0.50572   0.67184   Biso      1.000     C          0.0242    
         C46       1.0000    0.72203   0.50580   0.58534   Biso      1.000     C          0.0414    
         C47       1.0000    0.69107   0.50361   0.54055   Biso      1.000     C          -0.1022   
         C48       1.0000    0.75265   0.50524   0.71277   Biso      1.000     C          -0.1099   
         C49       1.0000    0.75321   0.50634   0.54207   Biso      1.000     C          -0.0076   
         C50       1.0000    0.78431   0.50612   0.32513   Biso      1.000     C          0.0242    
         C51       1.0000    0.78395   0.50596   0.41161   Biso      1.000     C          0.04      
         C52       1.0000    0.81259   0.50354   0.45635   Biso      1.000     C          -0.076    
         C53       1.0000    0.75298   0.50578   0.28416   Biso      1.000     C          -0.1099   
         C54       1.0000    0.75328   0.50645   0.45486   Biso      1.000     C          -0.0077   
         C55       1.0000    0.72197   0.50612   0.32501   Biso      1.000     C          0.0242    
         C56       1.0000    0.72216   0.50601   0.41152   Biso      1.000     C          0.0423    
         C57       1.0000    0.69113   0.50371   0.45623   Biso      1.000     C          -0.1022   
         C58       1.0000    0.78403   0.50565   0.67188   Biso      1.000     C          0.0242    
         C59       1.0000    0.78381   0.50571   0.58538   Biso      1.000     C          0.0423    
         C60       1.0000    0.81252   0.50341   0.54065   Biso      1.000     C          -0.076    
         C61       1.0000    0.46521   0.11526   0.24242   Biso      1.000     C          -0.0905   
         C62       1.0000    0.49390   0.12326   0.18367   Biso      1.000     C          -0.0307   
         C63       1.0000    0.52240   0.16246   0.17301   Biso      1.000     C          -0.0889   
         C64       1.0000    0.49412   0.18408   0.27906   Biso      1.000     C          0.0788    
         C65       1.0000    0.49381   0.27785   0.59000   Biso      1.000     C          0.0428    
         C66       1.0000    0.49640   0.30900   0.54529   Biso      1.000     C          -0.1055   
         C67       1.0000    0.88535   0.35093   0.24255   Biso      1.000     C          -0.0886   
         C68       1.0000    0.78358   0.27787   0.41501   Biso      1.000     C          0.0426    
         C69       1.0000    0.81225   0.30864   0.46025   Biso      1.000     C          -0.0757   
         C70       1.0000    0.72090   0.21491   0.67486   Biso      1.000     C          0.0243    
         C71       1.0000    0.72131   0.21552   0.58822   Biso      1.000     C          0.0429    
         C72       1.0000    0.69030   0.18714   0.54298   Biso      1.000     C          -0.0757   
         C73       1.0000    0.09148   0.49213   0.86888   Biso      1.000     C          0.5945    
         C74       1.0000    0.09149   0.59839   0.86704   Biso      1.000     C          0.5958    
         C75       1.0000    0.09143   0.59897   0.12831   Biso      1.000     C          0.5703    
         C76       1.0000    0.90979   0.50614   0.13260   Biso      1.000     C          0.5179    
         C77       1.0000    0.90942   0.40401   0.13434   Biso      1.000     C          0.5703    
         C78       1.0000    0.90944   0.40276   0.86689   Biso      1.000     C          0.5015    
         C79       1.0000    0.09120   0.49275   0.13014   Biso      1.000     C          0.5079    
         C80       1.0000    0.90949   0.50542   0.86427   Biso      1.000     C          0.5088    
         C81       1.0000    0.50702   0.59825   0.86663   Biso      1.000     C          0.5993    
         C82       1.0000    0.40045   0.49144   0.86860   Biso      1.000     C          0.5953    
         C83       1.0000    0.40140   0.49254   0.12984   Biso      1.000     C          0.5372    
         C84       1.0000    0.49400   0.40353   0.13354   Biso      1.000     C          0.592     
         C85       1.0000    0.59651   0.50594   0.13188   Biso      1.000     C          0.5088    
         C86       1.0000    0.59616   0.50556   0.86450   Biso      1.000     C          0.5088    
         C87       1.0000    0.50768   0.59883   0.12783   Biso      1.000     C          0.5943    
         C88       1.0000    0.49364   0.40260   0.86530   Biso      1.000     C          0.5945    
         C89       1.0000    0.40105   0.90923   0.87095   Biso      1.000     C          0.592     
         C90       1.0000    0.50757   0.90924   0.87015   Biso      1.000     C          0.5951    
         C91       1.0000    0.50783   0.90920   0.13131   Biso      1.000     C          0.5966    
         C92       1.0000    0.59647   0.09079   0.13429   Biso      1.000     C          0.5015    
         C93       1.0000    0.49441   0.09122   0.13476   Biso      1.000     C          0.5079    
         C94       1.0000    0.49370   0.09114   0.86689   Biso      1.000     C          0.5958    
         C95       1.0000    0.40154   0.90931   0.13244   Biso      1.000     C          0.5943    
         C96       1.0000    0.59658   0.09105   0.86580   Biso      1.000     C          0.5946    
         C97       1.0000    0.78399   0.27848   0.32841   Biso      1.000     C          0.0243    
         C98       1.0000    0.75282   0.24658   0.45797   Biso      1.000     C          -0.0081   
         C99       1.0000    0.75266   0.24758   0.28722   Biso      1.000     C          -0.1131   
         C100      1.0000    0.69051   0.18741   0.45864   Biso      1.000     C          -0.1055   
         C101      1.0000    0.87734   0.37150   0.18353   Biso      1.000     C          -0.0299   
         C102      1.0000    0.83807   0.36061   0.17262   Biso      1.000     C          -0.0961   
         C103      1.0000    0.80831   0.33081   0.21899   Biso      1.000     C          -0.1414   
         C104      1.0000    0.81640   0.31070   0.27875   Biso      1.000     C          0.0788    
         C105      1.0000    0.85552   0.32103   0.28867   Biso      1.000     C          -0.0905   
         C106      1.0000    0.88495   0.34877   0.76093   Biso      1.000     C          -0.0981   
         C107      1.0000    0.87722   0.36994   0.81891   Biso      1.000     C          -0.0305   
         C108      1.0000    0.83807   0.35945   0.82988   Biso      1.000     C          -0.0973   
         C109      1.0000    0.80811   0.32954   0.78427   Biso      1.000     C          -0.0952   
         C110      1.0000    0.81595   0.30894   0.72534   Biso      1.000     C          0.0795    
         C111      1.0000    0.85493   0.31875   0.71555   Biso      1.000     C          -0.0933   
         C112      1.0000    0.64763   0.11342   0.75909   Biso      1.000     C          -0.089    
         C113      1.0000    0.62756   0.12139   0.81966   Biso      1.000     C          -0.0193   
         C114      1.0000    0.63935   0.16084   0.83207   Biso      1.000     C          -0.089    
         C115      1.0000    0.87739   0.50597   0.81574   Biso      1.000     C          -0.0275   
         C116      1.0000    0.66920   0.19059   0.78576   Biso      1.000     C          -0.141    
         C117      1.0000    0.67766   0.14328   0.71324   Biso      1.000     C          -0.0889   
         C118      1.0000    0.64983   0.11492   0.24162   Biso      1.000     C          -0.1414   
         C119      1.0000    0.62900   0.12283   0.18313   Biso      1.000     C          -0.0275   
         C120      1.0000    0.63964   0.16200   0.17228   Biso      1.000     C          -0.0973   
         C121      1.0000    0.66943   0.19180   0.21840   Biso      1.000     C          -0.0952   
         C122      1.0000    0.68975   0.18378   0.27772   Biso      1.000     C          0.0795    
         C123      1.0000    0.67974   0.14478   0.28748   Biso      1.000     C          -0.1414   
         C124      1.0000    0.78350   0.27712   0.67541   Biso      1.000     C          0.0243    
         C125      1.0000    0.78330   0.27717   0.58892   Biso      1.000     C          0.0414    
         C126      1.0000    0.81212   0.30830   0.54458   Biso      1.000     C          -0.1074   
         C127      1.0000    0.75200   0.24610   0.71602   Biso      1.000     C          -0.1127   
         C128      1.0000    0.75265   0.24624   0.54525   Biso      1.000     C          -0.0081   
         C129      1.0000    0.72163   0.21609   0.32778   Biso      1.000     C          0.0243    
         C130      1.0000    0.72170   0.21614   0.41428   Biso      1.000     C          0.0414    
         C131      1.0000    0.68866   0.18247   0.72457   Biso      1.000     C          0.0788    
         C132      1.0000    0.88531   0.53475   0.75737   Biso      1.000     C          -0.0933   
         C133      1.0000    0.49295   0.30994   0.72645   Biso      1.000     C          0.0788    
         C134      1.0000    0.68969   0.50604   0.72157   Biso      1.000     C          0.0795    
         C135      1.0000    0.27687   0.49185   0.41515   Biso      1.000     C          0.0428    
         C136      1.0000    0.30770   0.49375   0.45995   Biso      1.000     C          -0.0988   
         C137      1.0000    0.21446   0.49125   0.67587   Biso      1.000     C          0.0243    
         C138      1.0000    0.21481   0.49142   0.58924   Biso      1.000     C          0.0431    
         C139      1.0000    0.18616   0.49382   0.54441   Biso      1.000     C          -0.0978   
         C140      1.0000    0.53687   0.88724   0.23829   Biso      1.000     C          -0.073    
         C141      1.0000    0.50866   0.87903   0.17790   Biso      1.000     C          -0.0175   
         C142      1.0000    0.48065   0.83955   0.16712   Biso      1.000     C          -0.0868   
         C143      1.0000    0.48062   0.81006   0.21469   Biso      1.000     C          -0.0905   
         C144      1.0000    0.50834   0.81843   0.27579   Biso      1.000     C          0.0788    
         C145      1.0000    0.53682   0.85763   0.28563   Biso      1.000     C          -0.0882   
         C146      1.0000    0.53727   0.88553   0.76264   Biso      1.000     C          -0.0961   
         C147      1.0000    0.50858   0.87730   0.82160   Biso      1.000     C          -0.0297   
         C148      1.0000    0.48013   0.83803   0.83161   Biso      1.000     C          -0.0961   
         C149      1.0000    0.48012   0.80851   0.78430   Biso      1.000     C          -0.0967   
         C150      1.0000    0.50834   0.81686   0.72438   Biso      1.000     C          0.0788    
         C151      1.0000    0.53728   0.85596   0.71552   Biso      1.000     C          -0.0905   
         C152      1.0000    0.53605   0.64923   0.75962   Biso      1.000     C          -0.0402   
         C153      1.0000    0.50789   0.62932   0.82015   Biso      1.000     C          -0.0178   
         C154      1.0000    0.48007   0.64102   0.83129   Biso      1.000     C          -0.0868   
         C155      1.0000    0.48014   0.67059   0.78390   Biso      1.000     C          -0.0889   
         C156      1.0000    0.50781   0.68986   0.72267   Biso      1.000     C          0.0788    
         C157      1.0000    0.53614   0.67891   0.71253   Biso      1.000     C          -0.0882   
         C158      1.0000    0.53737   0.65209   0.23556   Biso      1.000     C          -0.0736   
         C159      1.0000    0.50873   0.63178   0.17644   Biso      1.000     C          -0.0299   
         C160      1.0000    0.48031   0.64266   0.16648   Biso      1.000     C          -0.0886   
         C161      1.0000    0.48030   0.67212   0.21397   Biso      1.000     C          -0.0933   
         C162      1.0000    0.50847   0.69184   0.27405   Biso      1.000     C          0.0788    
         C163      1.0000    0.53737   0.68160   0.28291   Biso      1.000     C          -0.0905   
         C164      1.0000    0.27732   0.49228   0.32854   Biso      1.000     C          0.0243    
         C165      1.0000    0.24564   0.49123   0.45853   Biso      1.000     C          -0.0083   
         C166      1.0000    0.24644   0.49285   0.28780   Biso      1.000     C          -0.1099   
         C167      1.0000    0.18626   0.49403   0.45999   Biso      1.000     C          -0.0988   
         C168      1.0000    0.36889   0.49180   0.17935   Biso      1.000     C          -0.0305   
         C169      1.0000    0.34873   0.46319   0.23857   Biso      1.000     C          -0.0905   
         C170      1.0000    0.31941   0.46326   0.28642   Biso      1.000     C          -0.141    
         C171      1.0000    0.30929   0.49223   0.27799   Biso      1.000     C          0.0795    
         C172      1.0000    0.32895   0.52044   0.21799   Biso      1.000     C          -0.1323   
         C173      1.0000    0.34887   0.46198   0.76314   Biso      1.000     C          -0.089    
         C174      1.0000    0.36919   0.49040   0.82287   Biso      1.000     C          -0.0193   
         C175      1.0000    0.35787   0.51851   0.83378   Biso      1.000     C          -0.088    
         C176      1.0000    0.32830   0.51852   0.78669   Biso      1.000     C          -0.0976   
         C177      1.0000    0.30872   0.49066   0.72612   Biso      1.000     C          0.0788    
         C178      1.0000    0.31919   0.46200   0.71633   Biso      1.000     C          -0.0905   
         C179      1.0000    0.11344   0.46278   0.76301   Biso      1.000     C          -0.089    
         C180      1.0000    0.12168   0.49111   0.82301   Biso      1.000     C          -0.0193   
         C181      1.0000    0.16117   0.51901   0.83419   Biso      1.000     C          -0.089    
         C182      1.0000    0.50805   0.78472   0.67356   Biso      1.000     C          0.0244    
         C183      1.0000    0.19069   0.51890   0.78705   Biso      1.000     C          -0.1323   
         C184      1.0000    0.14306   0.46265   0.71622   Biso      1.000     C          -0.0981   
         C185      1.0000    0.11448   0.46328   0.23870   Biso      1.000     C          -0.0905   
         C186      1.0000    0.12296   0.49190   0.17950   Biso      1.000     C          -0.0307   
         C187      1.0000    0.16223   0.52043   0.17008   Biso      1.000     C          -0.0933   
         C188      1.0000    0.67972   0.53507   0.71193   Biso      1.000     C          -0.141    
         C189      1.0000    0.18299   0.49229   0.27807   Biso      1.000     C          0.0795    
         C190      1.0000    0.14388   0.46334   0.28655   Biso      1.000     C          -0.141    
         C191      1.0000    0.27675   0.49100   0.67582   Biso      1.000     C          0.0243    
         C192      1.0000    0.27658   0.49120   0.58920   Biso      1.000     C          0.0431    
         C193      1.0000    0.30756   0.49345   0.54436   Biso      1.000     C          -0.0988   
         C194      1.0000    0.24575   0.49140   0.71664   Biso      1.000     C          -0.1122   
         C195      1.0000    0.24549   0.49092   0.54586   Biso      1.000     C          -0.0084   
         C196      1.0000    0.21502   0.49233   0.32858   Biso      1.000     C          0.0243    
         C197      1.0000    0.21507   0.49195   0.41518   Biso      1.000     C          0.0427    
         C198      1.0000    0.18226   0.49111   0.72622   Biso      1.000     C          0.0788    
         C199      1.0000    0.50822   0.78483   0.58691   Biso      1.000     C          0.0428    
         C200      1.0000    0.19157   0.52051   0.21808   Biso      1.000     C          -0.0976   
         C201      1.0000    0.50747   0.75311   0.71382   Biso      1.000     C          -0.1127   
         C202      1.0000    0.32949   0.81015   0.21526   Biso      1.000     C          -0.0933   
         C203      1.0000    0.31017   0.81848   0.27644   Biso      1.000     C          0.0788    
         C204      1.0000    0.32092   0.85767   0.28650   Biso      1.000     C          -0.0961   
         C205      1.0000    0.21437   0.72219   0.67289   Biso      1.000     C          0.0243    
         C206      1.0000    0.21487   0.72288   0.58617   Biso      1.000     C          0.0435    
         C207      1.0000    0.18633   0.69212   0.54065   Biso      1.000     C          -0.0988   
         C208      1.0000    0.24559   0.75314   0.71418   Biso      1.000     C          -0.1111   
         C209      1.0000    0.24564   0.75432   0.54337   Biso      1.000     C          -0.0086   
         C210      1.0000    0.27796   0.78614   0.32648   Biso      1.000     C          0.0243    
         C211      1.0000    0.27730   0.78558   0.41319   Biso      1.000     C          0.0435    
         C212      1.0000    0.30802   0.81419   0.45871   Biso      1.000     C          -0.0988   
         C213      1.0000    0.24710   0.75483   0.28518   Biso      1.000     C          -0.1122   
         C214      1.0000    0.24598   0.75470   0.45599   Biso      1.000     C          -0.0086   
         C215      1.0000    0.21561   0.72369   0.32542   Biso      1.000     C          0.0243    
         C216      1.0000    0.21552   0.72366   0.41202   Biso      1.000     C          0.0426    
         C217      1.0000    0.18663   0.69251   0.45622   Biso      1.000     C          -0.0975   
         C218      1.0000    0.27660   0.78475   0.67393   Biso      1.000     C          0.0243    
         C219      1.0000    0.27660   0.78486   0.58733   Biso      1.000     C          0.0426    
         C220      1.0000    0.65005   0.53539   0.23882   Biso      1.000     C          -0.0967   
         C221      1.0000    0.62920   0.50659   0.18044   Biso      1.000     C          -0.0275   
         C222      1.0000    0.63983   0.47804   0.16979   Biso      1.000     C          -0.0981   
         C223      1.0000    0.66964   0.47808   0.21595   Biso      1.000     C          -0.0952   
         C224      1.0000    0.68997   0.50646   0.27517   Biso      1.000     C          0.0795    
         C225      1.0000    0.67996   0.53546   0.28477   Biso      1.000     C          -0.141    
         C226      1.0000    0.64973   0.53496   0.75765   Biso      1.000     C          -0.0967   
         C227      1.0000    0.62879   0.50612   0.81588   Biso      1.000     C          -0.0275   
         C228      1.0000    0.63939   0.47756   0.82660   Biso      1.000     C          -0.0967   
         C229      1.0000    0.66926   0.47761   0.78062   Biso      1.000     C          -0.0952   
         C230      1.0000    0.50616   0.81379   0.54260   Biso      1.000     C          -0.0975   
         C231      1.0000    0.35896   0.83966   0.16780   Biso      1.000     C          -0.0889   
         C232      1.0000    0.37049   0.87913   0.17886   Biso      1.000     C          -0.0178   
         C233      1.0000    0.30767   0.81385   0.54313   Biso      1.000     C          -0.0971   
         C234      1.0000    0.31834   0.85593   0.71596   Biso      1.000     C          -0.0967   
         C235      1.0000    0.50871   0.75431   0.54297   Biso      1.000     C          -0.0032   
         C236      1.0000    0.35052   0.88731   0.23934   Biso      1.000     C          -0.0863   
         C237      1.0000    0.50823   0.72368   0.32493   Biso      1.000     C          0.0243    
         C238      1.0000    0.50825   0.72367   0.41157   Biso      1.000     C          0.0431    
         C239      1.0000    0.50599   0.69254   0.45583   Biso      1.000     C          -0.0956   
         C240      1.0000    0.50784   0.75480   0.28467   Biso      1.000     C          -0.1127   
         C241      1.0000    0.50879   0.75469   0.45553   Biso      1.000     C          -0.0036   
         C242      1.0000    0.50834   0.78555   0.41267   Biso      1.000     C          0.0433    
         C243      1.0000    0.50621   0.81414   0.45816   Biso      1.000     C          -0.0978   
         C244      1.0000    0.50783   0.72218   0.67257   Biso      1.000     C          0.0243    
         C245      1.0000    0.50806   0.72290   0.58581   Biso      1.000     C          0.0434    
         C246      1.0000    0.50586   0.69216   0.54028   Biso      1.000     C          -0.0978   
         C247      1.0000    0.11495   0.65221   0.23587   Biso      1.000     C          -0.0889   
         C248      1.0000    0.12331   0.63180   0.17707   Biso      1.000     C          -0.0306   
         C249      1.0000    0.16259   0.64256   0.16738   Biso      1.000     C          -0.0905   
         C250      1.0000    0.50824   0.78610   0.32592   Biso      1.000     C          0.0243    
         C251      1.0000    0.18356   0.69185   0.27458   Biso      1.000     C          0.0795    
         C252      1.0000    0.32821   0.80856   0.78467   Biso      1.000     C          -0.1323   
         C253      1.0000    0.30834   0.81689   0.72476   Biso      1.000     C          0.0788    
         C254      1.0000    0.19204   0.67203   0.21485   Biso      1.000     C          -0.141    
         C255      1.0000    0.35760   0.83809   0.83212   Biso      1.000     C          -0.0905   
         C256      1.0000    0.36826   0.87731   0.82220   Biso      1.000     C          -0.0306   
         C257      1.0000    0.14288   0.67899   0.71303   Biso      1.000     C          -0.0905   
         C258      1.0000    0.18213   0.68987   0.72295   Biso      1.000     C          0.0788    
         C259      1.0000    0.34782   0.88551   0.76322   Biso      1.000     C          -0.0905   
         C260      1.0000    0.19062   0.67062   0.78403   Biso      1.000     C          -0.0973   
         C261      1.0000    0.16118   0.64109   0.83153   Biso      1.000     C          -0.0889   
         C262      1.0000    0.12165   0.62945   0.82062   Biso      1.000     C          -0.0178   
         C263      1.0000    0.11333   0.64935   0.76023   Biso      1.000     C          -0.0863   
         C264      1.0000    0.14446   0.68173   0.28319   Biso      1.000     C          -0.0933   
         H1        1.0000    0.64309   0.08548   0.25205   Biso      1.000     H          0.1012    
         H2        1.0000    0.77862   0.32282   0.79435   Biso      1.000     H          0.1072    
         H3        1.0000    0.64029   0.08394   0.74686   Biso      1.000     H          0.0968    
         H4        1.0000    0.62531   0.16901   0.87750   Biso      1.000     H          0.1021    
         H5        1.0000    0.67683   0.22021   0.79732   Biso      1.000     H          0.1001    
         H6        1.0000    0.83044   0.37465   0.87356   Biso      1.000     H          0.1072    
         H7        1.0000    0.69236   0.13563   0.66836   Biso      1.000     H          0.1021    
         H8        1.0000    0.86225   0.30321   0.67212   Biso      1.000     H          0.1021    
         H9        1.0000    0.62469   0.16976   0.12822   Biso      1.000     H          0.1021    
         H10       1.0000    0.83472   0.33346   0.57462   Biso      1.000     H          0.1121    
         H11       1.0000    0.69509   0.13733   0.33116   Biso      1.000     H          0.1021    
         H12       1.0000    0.75208   0.24586   0.78137   Biso      1.000     H          0.1107    
         H13       1.0000    0.66519   0.16502   0.42862   Biso      1.000     H          0.1121    
         H14       1.0000    0.75281   0.24765   0.22186   Biso      1.000     H          0.1107    
         H15       1.0000    0.66482   0.16460   0.57225   Biso      1.000     H          0.1121    
         H16       1.0000    0.83491   0.33403   0.43096   Biso      1.000     H          0.1121    
         H17       1.0000    0.91437   0.35539   0.75041   Biso      1.000     H          0.1012    
         H18       1.0000    0.04982   0.52412   0.84295   Biso      1.000     H          0.3845    
         H19       1.0000    0.94966   0.41040   0.00137   Biso      1.000     H          0.3845    
         H20       1.0000    0.67631   0.22131   0.20832   Biso      1.000     H          0.1001    
         H21       1.0000    0.86311   0.30586   0.33251   Biso      1.000     H          0.1072    
         H22       1.0000    0.44215   0.30576   0.67030   Biso      1.000     H          0.1012    
         H23       1.0000    0.83020   0.37532   0.12823   Biso      1.000     H          0.1012    
         H24       1.0000    0.44290   0.08427   0.74789   Biso      1.000     H          0.1072    
         H25       1.0000    0.99676   0.60398   0.14117   Biso      1.000     H          0.3757    
         H26       1.0000    0.54295   0.16914   0.87898   Biso      1.000     H          0.1072    
         H27       1.0000    0.54270   0.22048   0.79925   Biso      1.000     H          0.1021    
         H28       1.0000    0.44261   0.13612   0.66979   Biso      1.000     H          0.1072    
         H29       1.0000    0.44249   0.35813   0.74754   Biso      1.000     H          0.1107    
         H30       1.0000    0.54310   0.37413   0.87781   Biso      1.000     H          0.1107    
         H31       1.0000    0.54281   0.32232   0.79881   Biso      1.000     H          0.1021    
         H32       1.0000    0.44263   0.35771   0.25315   Biso      1.000     H          0.1012    
         H33       1.0000    0.54452   0.37486   0.12768   Biso      1.000     H          0.0968    
         H34       1.0000    0.54464   0.32362   0.20881   Biso      1.000     H          0.1012    
         H35       1.0000    0.44266   0.30610   0.33336   Biso      1.000     H          0.1021    
         H36       1.0000    0.49333   0.24655   0.78272   Biso      1.000     H          0.1107    
         H37       1.0000    0.49941   0.33455   0.43139   Biso      1.000     H          0.1121    
         H38       1.0000    0.49928   0.16503   0.57414   Biso      1.000     H          0.1121    
         H39       1.0000    0.49477   0.24778   0.22302   Biso      1.000     H          0.1107    
         H40       1.0000    0.49928   0.33434   0.57500   Biso      1.000     H          0.1107    
         H41       1.0000    0.49947   0.16531   0.43050   Biso      1.000     H          0.1118    
         H42       1.0000    0.91485   0.35785   0.25316   Biso      1.000     H          0.1065    
         H43       1.0000    0.77873   0.32372   0.20861   Biso      1.000     H          0.1072    
         H44       1.0000    0.02205   0.61454   0.06331   Biso      1.000     H          0.3754    
         H45       1.0000    0.59233   0.97926   0.05711   Biso      1.000     H          0.3745    
         H46       1.0000    0.98234   0.46341   0.25109   Biso      1.000     H          0.3754    
         H47       1.0000    0.43467   0.43491   0.74759   Biso      1.000     H          0.3757    
         H48       1.0000    0.53521   0.51841   0.74852   Biso      1.000     H          0.3845    
         H49       1.0000    0.47965   0.46115   0.74709   Biso      1.000     H          0.3754    
         H50       1.0000    0.46091   0.05118   0.00203   Biso      1.000     H          0.3845    
         H51       1.0000    0.47433   0.95009   0.84537   Biso      1.000     H          0.3845    
         H52       1.0000    0.60662   0.00118   0.13936   Biso      1.000     H          0.3757    
         H53       1.0000    0.40697   0.02179   0.07730   Biso      1.000     H          0.3845    
         H54       1.0000    0.48309   0.02058   0.25137   Biso      1.000     H          0.3754    
         H55       1.0000    0.53482   0.01196   0.25124   Biso      1.000     H          0.3845    
         H56       1.0000    0.43792   0.99991   0.25413   Biso      1.000     H          0.3771    
         H57       1.0000    0.58971   0.05095   0.99891   Biso      1.000     H          0.3845    
         H58       1.0000    0.47604   0.95099   0.15674   Biso      1.000     H          0.3845    
         H59       1.0000    0.61347   0.02001   0.92698   Biso      1.000     H          0.3845    
         H60       1.0000    0.40704   0.02359   0.92649   Biso      1.000     H          0.3754    
         H61       1.0000    0.38739   0.97984   0.94955   Biso      1.000     H          0.3754    
         H62       1.0000    0.56014   0.00134   0.74537   Biso      1.000     H          0.3757    
         H63       1.0000    0.46272   0.98303   0.75033   Biso      1.000     H          0.3845    
         H64       1.0000    0.53364   0.01986   0.75159   Biso      1.000     H          0.3757    
         H65       1.0000    0.44238   0.13747   0.33243   Biso      1.000     H          0.1107    
         H66       1.0000    0.59199   0.61195   0.94344   Biso      1.000     H          0.375     
         H67       1.0000    0.01963   0.40619   0.07236   Biso      1.000     H          0.3845    
         H68       1.0000    0.61570   0.59178   0.92142   Biso      1.000     H          0.3754    
         H69       1.0000    0.47472   0.52502   0.15373   Biso      1.000     H          0.3845    
         H70       1.0000    0.98777   0.52246   0.24919   Biso      1.000     H          0.3845    
         H71       1.0000    0.00093   0.43699   0.25111   Biso      1.000     H          0.3771    
         H72       1.0000    0.94995   0.53946   0.99710   Biso      1.000     H          0.3803    
         H73       1.0000    0.04969   0.52546   0.15444   Biso      1.000     H          0.3845    
         H74       1.0000    0.02000   0.61352   0.92384   Biso      1.000     H          0.3845    
         H75       1.0000    0.97756   0.38446   0.93046   Biso      1.000     H          0.3754    
         H76       1.0000    0.02263   0.40756   0.93348   Biso      1.000     H          0.3754    
         H77       1.0000    0.00102   0.56402   0.74670   Biso      1.000     H          0.3771    
         H78       1.0000    0.98200   0.46236   0.74981   Biso      1.000     H          0.3845    
         H79       1.0000    0.98232   0.51903   0.74639   Biso      1.000     H          0.3754    
         H80       1.0000    0.58936   0.53876   0.99872   Biso      1.000     H          0.3845    
         H81       1.0000    0.47476   0.52426   0.84254   Biso      1.000     H          0.3845    
         H82       1.0000    0.38665   0.40833   0.05489   Biso      1.000     H          0.3754    
         H83       1.0000    0.40699   0.38429   0.07223   Biso      1.000     H          0.3754    
         H84       1.0000    0.61389   0.59339   0.07145   Biso      1.000     H          0.3845    
         H85       1.0000    0.53433   0.51515   0.24692   Biso      1.000     H          0.3757    
         H86       1.0000    0.46364   0.48102   0.24940   Biso      1.000     H          0.3845    
         H87       1.0000    0.56118   0.56016   0.25190   Biso      1.000     H          0.3757    
         H88       1.0000    0.46055   0.40989   0.99826   Biso      1.000     H          0.3845    
         H89       1.0000    0.39527   0.39403   0.85120   Biso      1.000     H          0.381     
         H90       1.0000    0.54500   0.22173   0.20942   Biso      1.000     H          0.1072    
         H91       1.0000    0.22121   0.54307   0.20878   Biso      1.000     H          0.1021    
         H92       1.0000    0.44254   0.08579   0.25282   Biso      1.000     H          0.1001    
         H93       1.0000    0.45841   0.78041   0.20411   Biso      1.000     H          0.1072    
         H94       1.0000    0.55932   0.86549   0.33026   Biso      1.000     H          0.1021    
         H95       1.0000    0.55986   0.91506   0.75252   Biso      1.000     H          0.1012    
         H96       1.0000    0.45742   0.82998   0.87580   Biso      1.000     H          0.1001    
         H97       1.0000    0.45753   0.77892   0.79394   Biso      1.000     H          0.1107    
         H98       1.0000    0.56006   0.86374   0.67161   Biso      1.000     H          0.1021    
         H99       1.0000    0.55832   0.64194   0.74819   Biso      1.000     H          0.1072    
         H100      1.0000    0.45773   0.62711   0.87654   Biso      1.000     H          0.1072    
         H101      1.0000    0.45826   0.83116   0.12201   Biso      1.000     H          0.1072    
         H102      1.0000    0.45805   0.67819   0.79473   Biso      1.000     H          0.1072    
         H103      1.0000    0.55993   0.64508   0.24568   Biso      1.000     H          0.1072    
         H104      1.0000    0.45764   0.62810   0.12219   Biso      1.000     H          0.0968    
         H105      1.0000    0.45776   0.67920   0.20435   Biso      1.000     H          0.1021    
         H106      1.0000    0.56011   0.69650   0.32695   Biso      1.000     H          0.1072    
         H107      1.0000    0.50752   0.75297   0.77918   Biso      1.000     H          0.1107    
         H108      1.0000    0.50337   0.66741   0.42559   Biso      1.000     H          0.1121    
         H109      1.0000    0.50357   0.83633   0.57280   Biso      1.000     H          0.1121    
         H110      1.0000    0.50798   0.75504   0.21931   Biso      1.000     H          0.1107    
         H111      1.0000    0.55861   0.69347   0.66783   Biso      1.000     H          0.1012    
         H112      1.0000    0.55926   0.91675   0.24946   Biso      1.000     H          0.1001    
         H113      1.0000    0.33296   0.49638   0.43019   Biso      1.000     H          0.1121    
         H114      1.0000    0.16353   0.49646   0.57412   Biso      1.000     H          0.1121    
         H115      1.0000    0.54507   0.17031   0.12882   Biso      1.000     H          0.1012    
         H116      1.0000    0.37267   0.54299   0.12559   Biso      1.000     H          0.1001    
         H117      1.0000    0.35562   0.44053   0.24818   Biso      1.000     H          0.1021    
         H118      1.0000    0.30449   0.44048   0.33032   Biso      1.000     H          0.1001    
         H119      1.0000    0.32190   0.54302   0.20871   Biso      1.000     H          0.1107    
         H120      1.0000    0.35591   0.43953   0.75199   Biso      1.000     H          0.1021    
         H121      1.0000    0.37213   0.54105   0.87847   Biso      1.000     H          0.1072    
         H122      1.0000    0.32102   0.54086   0.79708   Biso      1.000     H          0.1072    
         H123      1.0000    0.30434   0.43944   0.67194   Biso      1.000     H          0.1072    
         H124      1.0000    0.08390   0.44045   0.75169   Biso      1.000     H          0.1021    
         H125      1.0000    0.16953   0.54146   0.87912   Biso      1.000     H          0.1072    
         H126      1.0000    0.22037   0.54108   0.79762   Biso      1.000     H          0.1072    
         H127      1.0000    0.13523   0.44013   0.67169   Biso      1.000     H          0.1072    
         H128      1.0000    0.08491   0.44065   0.24836   Biso      1.000     H          0.1012    
         H129      1.0000    0.17042   0.54309   0.12576   Biso      1.000     H          0.1012    
         H130      1.0000    0.13599   0.44057   0.33047   Biso      1.000     H          0.1012    
         H131      1.0000    0.16367   0.49674   0.43024   Biso      1.000     H          0.1118    
         H132      1.0000    0.33275   0.49590   0.57408   Biso      1.000     H          0.1121    
         H133      1.0000    0.24647   0.49292   0.22243   Biso      1.000     H          0.1107    
         H134      1.0000    0.50311   0.66675   0.56945   Biso      1.000     H          0.1121    
         H135      1.0000    0.50366   0.83691   0.42893   Biso      1.000     H          0.1121    
         H136      1.0000    0.24560   0.49108   0.78200   Biso      1.000     H          0.1107    
         H137      1.0000    0.17070   0.62792   0.12329   Biso      1.000     H          0.1001    
         H138      1.0000    0.69532   0.55830   0.32834   Biso      1.000     H          0.1021    
         H139      1.0000    0.64302   0.55770   0.74734   Biso      1.000     H          0.1021    
         H140      1.0000    0.62436   0.45478   0.87045   Biso      1.000     H          0.1021    
         H141      1.0000    0.67612   0.45495   0.79062   Biso      1.000     H          0.1072    
         H142      1.0000    0.69516   0.55795   0.66849   Biso      1.000     H          0.1021    
         H143      1.0000    0.91479   0.55742   0.74685   Biso      1.000     H          0.1072    
         H144      1.0000    0.83043   0.45476   0.87066   Biso      1.000     H          0.1001    
         H145      1.0000    0.77882   0.45497   0.79095   Biso      1.000     H          0.1001    
         H146      1.0000    0.86289   0.55774   0.66822   Biso      1.000     H          0.1001    
         H147      1.0000    0.83080   0.45545   0.12627   Biso      1.000     H          0.1012    
         H148      1.0000    0.77916   0.45556   0.20600   Biso      1.000     H          0.1072    
         H149      1.0000    0.86316   0.55826   0.32907   Biso      1.000     H          0.1072    
         H150      1.0000    0.75270   0.50534   0.77813   Biso      1.000     H          0.1107    
         H151      1.0000    0.83518   0.50082   0.42667   Biso      1.000     H          0.1121    
         H152      1.0000    0.66575   0.50089   0.57019   Biso      1.000     H          0.1121    
         H153      1.0000    0.75312   0.50602   0.21880   Biso      1.000     H          0.1107    
         H154      1.0000    0.83505   0.50058   0.57031   Biso      1.000     H          0.1121    
         H155      1.0000    0.08540   0.64530   0.24569   Biso      1.000     H          0.1079    
         H156      1.0000    0.66587   0.50109   0.42650   Biso      1.000     H          0.1121    
         H157      1.0000    0.67654   0.45544   0.20598   Biso      1.000     H          0.1107    
         H158      1.0000    0.62486   0.45528   0.12587   Biso      1.000     H          0.1021    
         H159      1.0000    0.91511   0.55808   0.25028   Biso      1.000     H          0.1001    
         H160      1.0000    0.16412   0.66737   0.42594   Biso      1.000     H          0.1121    
         H161      1.0000    0.13663   0.69672   0.32700   Biso      1.000     H          0.1072    
         H162      1.0000    0.64328   0.55808   0.24916   Biso      1.000     H          0.1012    
         H163      1.0000    0.08376   0.64208   0.74898   Biso      1.000     H          0.1072    
         H164      1.0000    0.16963   0.62716   0.87666   Biso      1.000     H          0.1072    
         H165      1.0000    0.22033   0.67821   0.79465   Biso      1.000     H          0.1072    
         H166      1.0000    0.13495   0.69357   0.66842   Biso      1.000     H          0.1021    
         H167      1.0000    0.37228   0.83009   0.87635   Biso      1.000     H          0.1001    
         H168      1.0000    0.32130   0.77900   0.79421   Biso      1.000     H          0.1072    
         H169      1.0000    0.30330   0.86364   0.67202   Biso      1.000     H          0.1072    
         H170      1.0000    0.35771   0.91682   0.25070   Biso      1.000     H          0.1001    
         H171      1.0000    0.35464   0.91501   0.75322   Biso      1.000     H          0.1021    
         H172      1.0000    0.22167   0.67905   0.20547   Biso      1.000     H          0.1107    
         H173      1.0000    0.32202   0.78051   0.20454   Biso      1.000     H          0.1021    
         H174      1.0000    0.30628   0.86549   0.33121   Biso      1.000     H          0.1072    
         H175      1.0000    0.24537   0.75301   0.77954   Biso      1.000     H          0.1107    
         H176      1.0000    0.33337   0.83696   0.42953   Biso      1.000     H          0.1121    
         H177      1.0000    0.16365   0.66671   0.56982   Biso      1.000     H          0.1121    
         H178      1.0000    0.37295   0.83130   0.12261   Biso      1.000     H          0.1072    
         H179      1.0000    0.24720   0.75507   0.21982   Biso      1.000     H          0.1107    
         H180      1.0000    0.33278   0.83641   0.57338   Biso      1.000     H          0.1121    
         O1        1.0000    0.54029   0.54396   0.76747   Biso      1.000     O          -0.7855   
         O2        1.0000    0.48022   0.58130   0.92103   Biso      1.000     O          -0.6282   
         O3        1.0000    0.45701   0.45511   0.22966   Biso      1.000     O          -0.7855   
         O4        1.0000    0.53618   0.53975   0.22992   Biso      1.000     O          -0.8707   
         O5        1.0000    0.56100   0.52729   0.99874   Biso      1.000     O          -1.1269   
         O6        1.0000    0.41184   0.46724   0.14645   Biso      1.000     O          -0.638    
         O7        1.0000    0.59471   0.59656   0.10311   Biso      1.000     O          -0.7855   
         O8        1.0000    0.52740   0.96535   0.99899   Biso      1.000     O          -1.1726   
         O9        1.0000    0.52704   0.56194   0.99867   Biso      1.000     O          -1.1726   
         O10       1.0000    0.53256   0.58792   0.85093   Biso      1.000     O          -0.529    
         O11       1.0000    0.48255   0.51664   0.10472   Biso      1.000     O          -1.1303   
         O12       1.0000    0.53328   0.58865   0.14385   Biso      1.000     O          -0.5302   
         O13       1.0000    0.58630   0.53145   0.14824   Biso      1.000     O          -0.529    
         O14       1.0000    0.51678   0.48275   0.89064   Biso      1.000     O          -1.1726   
         O15       1.0000    0.59539   0.59671   0.90051   Biso      1.000     O          -0.8707   
         O16       1.0000    0.40233   0.40431   0.09577   Biso      1.000     O          -0.8707   
         O17       1.0000    0.40478   0.40293   0.90662   Biso      1.000     O          -0.7855   
         O18       1.0000    0.47216   0.43826   0.99843   Biso      1.000     O          -1.1303   
         O19       1.0000    0.51653   0.48268   0.10606   Biso      1.000     O          -1.1726   
         O20       1.0000    0.46863   0.41394   0.15011   Biso      1.000     O          -0.529    
         O21       1.0000    0.58024   0.47982   0.07631   Biso      1.000     O          -0.6116   
         O22       1.0000    0.51974   0.41935   0.07699   Biso      1.000     O          -0.5463   
         O23       1.0000    0.48082   0.89935   0.07743   Biso      1.000     O          -0.6282   
         O24       1.0000    0.58024   0.47979   0.92083   Biso      1.000     O          -0.6116   
         O25       1.0000    0.51974   0.41912   0.92096   Biso      1.000     O          -0.547    
         O26       1.0000    0.48280   0.51649   0.89220   Biso      1.000     O          -1.1303   
         O27       1.0000    0.41855   0.89944   0.07832   Biso      1.000     O          -0.5483   
         O28       1.0000    0.41792   0.89934   0.92528   Biso      1.000     O          -0.547    
         O29       1.0000    0.53305   0.94500   0.85379   Biso      1.000     O          -0.529    
         O30       1.0000    0.58568   0.53080   0.84748   Biso      1.000     O          -0.529    
         O31       1.0000    0.40335   0.99835   0.10516   Biso      1.000     O          -0.7855   
         O32       1.0000    0.41178   0.94515   0.14796   Biso      1.000     O          -0.529    
         O33       1.0000    0.53356   0.94505   0.14647   Biso      1.000     O          -0.529    
         O34       1.0000    0.48371   0.96672   0.10697   Biso      1.000     O          -1.1303   
         O35       1.0000    0.45955   0.99697   0.23326   Biso      1.000     O          -0.8707   
         O36       1.0000    0.54558   0.99635   0.22935   Biso      1.000     O          -0.7854   
         O37       1.0000    0.45614   0.00230   0.77046   Biso      1.000     O          -0.7855   
         O38       1.0000    0.41139   0.94498   0.85438   Biso      1.000     O          -0.529    
         O39       1.0000    0.48238   0.96633   0.89434   Biso      1.000     O          -1.1303   
         O40       1.0000    0.51635   0.03426   0.89282   Biso      1.000     O          -1.1726   
         O41       1.0000    0.40212   0.99831   0.90600   Biso      1.000     O          -0.8707   
         O42       1.0000    0.59777   0.00338   0.08485   Biso      1.000     O          -0.8707   
         O43       1.0000    0.59463   0.99864   0.89266   Biso      1.000     O          -0.7855   
         O44       1.0000    0.56131   0.03416   0.99891   Biso      1.000     O          -1.1303   
         O45       1.0000    0.51760   0.03434   0.10824   Biso      1.000     O          -1.1726   
         O46       1.0000    0.58591   0.05506   0.15137   Biso      1.000     O          -0.529    
         O47       1.0000    0.46895   0.05553   0.15137   Biso      1.000     O          -0.529    
         O48       1.0000    0.52033   0.10101   0.07868   Biso      1.000     O          -0.5474   
         O49       1.0000    0.58069   0.10070   0.07771   Biso      1.000     O          -0.6116   
         O50       1.0000    0.51972   0.10087   0.92283   Biso      1.000     O          -0.5463   
         O51       1.0000    0.58026   0.10078   0.92169   Biso      1.000     O          -0.5469   
         O52       1.0000    0.46829   0.05531   0.85056   Biso      1.000     O          -0.529    
         O53       1.0000    0.58625   0.05525   0.84957   Biso      1.000     O          -0.529    
         O54       1.0000    0.53533   0.99695   0.76806   Biso      1.000     O          -0.8707   
         O55       1.0000    0.48066   0.89935   0.92421   Biso      1.000     O          -0.6282   
         O56       1.0000    0.46813   0.41288   0.84877   Biso      1.000     O          -0.529    
         O57       1.0000    0.43781   0.96560   0.00213   Biso      1.000     O          -1.174    
         O58       1.0000    0.41051   0.46566   0.85341   Biso      1.000     O          -0.529    
         O59       1.0000    0.96627   0.48368   0.10689   Biso      1.000     O          -1.1726   
         O60       1.0000    0.94556   0.53126   0.14973   Biso      1.000     O          -0.529    
         O61       1.0000    0.94517   0.41445   0.15116   Biso      1.000     O          -0.529    
         O62       1.0000    0.89960   0.41986   0.07772   Biso      1.000     O          -0.5468   
         O63       1.0000    0.89987   0.48046   0.07608   Biso      1.000     O          -0.6119   
         O64       1.0000    0.89968   0.41913   0.92240   Biso      1.000     O          -0.6116   
         O65       1.0000    0.45581   0.46012   0.76685   Biso      1.000     O          -0.8707   
         O66       1.0000    0.96650   0.52755   0.99744   Biso      1.000     O          -1.1303   
         O67       1.0000    0.94516   0.41300   0.85011   Biso      1.000     O          -0.529    
         O68       1.0000    0.00510   0.54289   0.76615   Biso      1.000     O          -0.8707   
         O69       1.0000    0.05564   0.58816   0.85147   Biso      1.000     O          -0.529    
         O70       1.0000    0.10132   0.58134   0.92119   Biso      1.000     O          -0.6282   
         O71       1.0000    0.10120   0.51958   0.07600   Biso      1.000     O          -0.547    
         O72       1.0000    0.10133   0.58191   0.07449   Biso      1.000     O          -0.547    
         O73       1.0000    0.03538   0.56261   0.99715   Biso      1.000     O          -1.1748   
         O74       1.0000    0.47234   0.03426   0.00178   Biso      1.000     O          -1.1269   
         O75       1.0000    0.94521   0.53062   0.84704   Biso      1.000     O          -0.529    
         O76       1.0000    0.99598   0.59323   0.89846   Biso      1.000     O          -0.7855   
         O77       1.0000    0.89969   0.47976   0.92082   Biso      1.000     O          -0.6116   
         O78       1.0000    0.00046   0.40322   0.89952   Biso      1.000     O          -0.8707   
         O79       1.0000    0.99697   0.59472   0.08586   Biso      1.000     O          -0.8707   
         O80       1.0000    0.41784   0.51870   0.92178   Biso      1.000     O          -0.547    
         O81       1.0000    0.48060   0.58168   0.07420   Biso      1.000     O          -0.6282   
         O82       1.0000    0.41796   0.51905   0.07489   Biso      1.000     O          -0.5483   
         O83       1.0000    0.43742   0.47233   0.99805   Biso      1.000     O          -1.1726   
         O84       1.0000    0.03513   0.47244   0.00021   Biso      1.000     O          -1.1748   
         O85       1.0000    0.99594   0.40254   0.09924   Biso      1.000     O          -0.7855   
         O86       1.0000    0.05545   0.46717   0.14601   Biso      1.000     O          -0.6156   
         O87       1.0000    0.96648   0.43876   0.00022   Biso      1.000     O          -1.1303   
         O88       1.0000    0.03389   0.51737   0.10476   Biso      1.000     O          -1.1307   
         O89       1.0000    0.00506   0.46218   0.23142   Biso      1.000     O          -0.8707   
         O90       1.0000    0.00466   0.54875   0.22788   Biso      1.000     O          -0.7854   
         O91       1.0000    0.10130   0.51903   0.92286   Biso      1.000     O          -0.547    
         O92       1.0000    0.00388   0.45949   0.76883   Biso      1.000     O          -0.7855   
         O93       1.0000    0.05564   0.46663   0.85295   Biso      1.000     O          -0.529    
         O94       1.0000    0.03394   0.51629   0.89253   Biso      1.000     O          -1.1307   
         O95       1.0000    0.96615   0.48240   0.89093   Biso      1.000     O          -1.1726   
         O96       1.0000    0.05567   0.58883   0.14429   Biso      1.000     O          -0.529    
         Zr1       1.0000    0.00048   0.45635   0.89615   Biso      1.000     Zr          2.1661    
         Zr2       1.0000    0.93379   0.46680   0.99905   Biso      1.000     Zr          2.1598    
         Zr3       1.0000    0.00047   0.54278   0.89357   Biso      1.000     Zr          2.1647    
         Zr4       1.0000    0.00059   0.54403   0.10090   Biso      1.000     Zr          2.1647    
         Zr5       1.0000    0.00037   0.45745   0.10403   Biso      1.000     Zr          2.1647    
         Zr6       1.0000    0.06741   0.53355   0.99863   Biso      1.000     Zr          2.1661    
         Zr7       1.0000    0.53293   0.46649   0.99853   Biso      1.000     Zr          2.1598    
         Zr8       1.0000    0.46640   0.93317   0.00097   Biso      1.000     Zr          2.1661    
         Zr9       1.0000    0.45619   0.45655   0.10211   Biso      1.000     Zr          2.1647    
         Zr10      1.0000    0.54252   0.54292   0.10274   Biso      1.000     Zr          2.1647    
         Zr11      1.0000    0.46606   0.53331   0.99815   Biso      1.000     Zr          2.1598    
         Zr12      1.0000    0.54282   0.54315   0.89479   Biso      1.000     Zr          2.1647    
         Zr13      1.0000    0.54238   0.00000   0.89506   Biso      1.000     Zr          2.1647    
         Zr14      1.0000    0.54372   0.00007   0.10249   Biso      1.000     Zr          2.1647    
         Zr15      1.0000    0.45722   0.00021   0.10588   Biso      1.000     Zr          2.1647    
         Zr16      1.0000    0.45603   0.00011   0.89798   Biso      1.000     Zr          2.1661    
         Zr17      1.0000    0.45639   0.45648   0.89451   Biso      1.000     Zr          2.1647    
         Zr18      1.0000    0.53318   0.06682   0.00035   Biso      1.000     Zr          2.1598 